Todays was very weird.
Hello.
New line.

Be careful when you cross the street.